data/models/123_10sw/ieee123_Power_seq_kVA.txt

SYMMETRICAL COMPONENT POWERS BY CIRCUIT ELEMENT (first 3 phases)                                     Excess Power

Element             Term    P1(kW)   Q1(kvar)       P2         Q2      P0      Q0       P_Norm      Q_Norm     P_Emerg    Q_Emerg

"Vsource.SOURCE"     1    -3260.9    -1315.1        0.0        0.0    -0.0     0.0
"Vsource.SOURCE"     2        0.0        0.0        0.0        0.0     0.0     0.0
"Line.SW1"           1     3260.9     1315.1       -0.0       -0.0     0.0    -0.0     1087.7      438.7        1.2        0.5
"Line.SW1"           2    -3260.9    -1315.1        0.0        0.0     0.0     0.0
"Line.L115"          1     3260.9     1315.1       -0.0       -0.0    -0.0    -0.0     3260.4     1314.9     3152.3     1271.3
"Line.L115"          2    -3245.1    -1280.8        1.0        1.4     0.9     1.7
"Line.L3"            1     3085.9     1201.0       -1.1       -1.2    -0.5    -1.7     3083.8     1197.9     2978.2     1156.9
"Line.L3"            2    -3075.3    -1177.9        1.8        2.1     1.1     2.8
"Line.L7"            1     3055.2     1167.7       -1.7       -2.1    -1.1    -2.7     3051.8     1162.7     2945.6     1122.3
"Line.L7"            2    -3048.2    -1152.4        2.2        2.6     1.4     3.3
"Line.L10"           1     2930.5     1092.6       -1.5       -2.5    -1.7    -2.4     2926.7     1087.5     2815.8     1046.3
"Line.L10"           2    -2920.7    -1071.6        2.0        3.2     2.1     3.1
"Line.SW2"           1     1691.0      401.5       -1.1       -1.8    -0.9    -2.3        0.0        0.0        0.0        0.0
"Line.SW2"           2    -1691.0     -401.5        1.1        1.8     0.9     2.3
"Line.L116"          1     1691.0      401.5       -1.1       -1.8    -0.9    -2.3     1688.4      397.2     1576.1      370.8
"Line.L116"          2    -1686.9     -392.7        1.3        2.0     1.1     2.8
"Line.L52"           1     1646.6      371.9       -0.9       -1.9    -1.2    -2.1     1643.9      367.7     1527.1      341.6
"Line.L52"           2    -1644.7     -367.7        1.0        2.0     1.3     2.3
"Line.L53"           1     1604.3      346.9       -0.6       -1.8    -1.4    -1.6     1601.8      343.3     1479.7      317.1
"Line.L53"           2    -1603.2     -344.4        0.6        1.9     1.4     1.7
"Line.L55"           1     1565.0      325.3       -0.4       -2.1    -1.7    -1.5     1562.2      321.6     1439.0      296.2
"Line.L55"           2    -1561.7     -318.9        0.4        2.1     1.8     1.7
"Line.L58"           1     1522.5      299.9       -0.5       -2.6    -2.3    -2.2     1519.1      294.9     1399.3      271.7
"Line.L58"           2    -1515.7     -286.8        0.4        2.9     2.5     2.8
"Line.SW4"           1     1141.2       77.0       -1.0       -2.1    -1.7    -3.2        0.0        0.0        0.0        0.0
"Line.SW4"           2    -1141.2      -77.0        1.0        2.1     1.7     3.2
"Line.L117"          1     1141.2       77.0       -1.0       -2.1    -1.7    -3.2     1137.9       71.7     1026.4       64.7
"Line.L117"          2    -1139.5      -73.7        1.1        2.2     1.8     3.5
"Line.L67"           1      591.7     -206.7        0.9       -0.9    -2.7     0.4      589.3     -207.0      488.3     -171.5
"Line.L67"           2     -591.3      207.5       -0.9        0.9     2.8    -0.3
"Line.L73"           1      473.9     -266.1       -0.4        0.1    -0.0    -0.2      472.9     -265.9      361.4     -203.2
"Line.L73"           2     -473.7      266.5        0.4       -0.1     0.0     0.2
"Line.SW11"          1        0.0        0.0        0.0        0.0     0.0     0.0        0.0        0.0        0.0        0.0
"Line.SW11"          2        0.0       -0.0        0.0       -0.0     0.0    -0.0
"Line.L77"           1       -0.0        0.0       -0.0        0.0    -0.0     0.0        0.0        0.0        0.0        0.0
"Line.L77"           2       -0.0       -0.0        0.0       -0.0     0.0    -0.0
"Line.L86"           1        0.0        0.0       -0.0        0.0     0.0     0.0        0.0        0.0        0.0        0.0
"Line.L86"           2       -0.0       -0.0        0.0       -0.0    -0.0    -0.0
"Line.L88"           1        0.0        0.0       -0.0        0.0     0.0    -0.0        0.0        0.0        0.0        0.0
"Line.L88"           2       -0.0       -0.0        0.0       -0.0    -0.0     0.0
"Line.L90"           1        0.0        0.0       -0.0        0.0     0.0    -0.0        0.0        0.0        0.0        0.0
"Line.L90"           2       -0.0       -0.0        0.0       -0.0    -0.0     0.0
"Line.L92"           1      -13.3        9.0      -13.3        9.0   -13.3     9.0      -39.8       27.0       -1.4        1.0
"Line.L92"           2       13.3       -9.0       13.3       -9.0    13.3    -9.0
"Line.L94"           1      -13.3        9.0      -13.4        9.0   -13.3     9.0      -39.8       27.0       -1.4        1.0
"Line.L94"           2       13.3       -9.0       13.4       -9.0    13.4    -9.0
"Line.SW7"           1       13.3       -9.0       13.4       -9.0    13.4    -9.0        0.0        0.0        0.0        0.0
"Line.SW7"           2      -13.3        9.0      -13.4        9.0   -13.4     9.0
"Line.L17"           1        0.0        0.0        0.0        0.0     0.0     0.0       59.9      -17.0       15.2       -4.3
"Line.L17"           2        0.0        0.0        0.0        0.0     0.0     0.0
"Line.L16"           1        0.0        0.0        0.0        0.0     0.0     0.0       39.8       19.9        0.0        0.0
"Line.L16"           2        0.0        0.0        0.0        0.0     0.0     0.0
"Line.L34"           1        0.0        0.0        0.0        0.0     0.0     0.0      100.0        3.0       53.5        1.6
"Line.L34"           2        0.0        0.0        0.0        0.0     0.0     0.0
"Line.L95"           1        0.0        0.0        0.0        0.0     0.0     0.0        0.0        0.0        0.0        0.0
"Line.L95"           2        0.0        0.0        0.0        0.0     0.0     0.0
"Line.L93"           1        0.0        0.0        0.0        0.0     0.0     0.0        0.0        0.0        0.0        0.0
"Line.L93"           2        0.0        0.0        0.0        0.0     0.0     0.0
"Line.L91"           1        0.0        0.0        0.0        0.0     0.0     0.0       39.8      -27.0        1.4       -1.0
"Line.L91"           2        0.0        0.0        0.0        0.0     0.0     0.0
"Line.L89"           1        0.0        0.0        0.0        0.0     0.0     0.0        0.0        0.0        0.0        0.0
"Line.L89"           2        0.0        0.0        0.0        0.0     0.0     0.0
"Line.L87"           1        0.0        0.0        0.0        0.0     0.0     0.0        0.0        0.0        0.0        0.0
"Line.L87"           2        0.0        0.0        0.0        0.0     0.0     0.0
"Line.L76"           1      237.7     -439.2        0.1       -0.1    -0.0    -0.2      237.5     -439.0      173.6     -320.9
"Line.L76"           2     -237.4      440.0       -0.1        0.1     0.0     0.2
"Line.L78"           1      198.1     -458.8        0.0       -0.7    -0.6    -0.9      197.2     -459.7      145.6     -339.6
"Line.L78"           2     -198.0      458.9       -0.0        0.7     0.6     0.9
"Line.L80"           1      161.8     -478.0        0.5       -0.5    -1.0    -0.1      161.1     -477.9      119.0     -353.0
"Line.L80"           2     -161.3      478.9       -0.5        0.5     1.0     0.1
"Line.L81"           1      122.0     -497.6        0.4       -1.0    -1.6    -0.9      120.7     -498.9       91.6     -378.8
"Line.L81"           2     -121.9      498.0       -0.4        1.0     1.6     0.9
"Line.L83"           1        0.0        0.0        0.0        0.0     0.0     0.0       59.9       30.1       19.2        9.6
"Line.L83"           2        0.0        0.0        0.0        0.0     0.0     0.0
"Line.L85"           1        0.0        0.0        0.0        0.0     0.0     0.0       39.8       19.9        0.0        0.0
"Line.L85"           2        0.0        0.0        0.0        0.0     0.0     0.0
"Line.L82"           1       60.9     -528.4       -0.3       -0.5    -0.1    -1.1       60.5     -529.4       45.9     -401.9
"Line.L82"           2      -60.7      529.0        0.3        0.5     0.1     1.1
"Line.L84"           1       20.5     -550.1        0.2       -0.3    -0.5    -0.2       20.2     -549.9       15.4     -417.5
"Line.L84"           2      -20.3      550.6       -0.2        0.3     0.5     0.2
"Line.L79"           1       36.2       19.1       -0.5       -0.2     0.3    -0.8       35.8       17.9        0.0        0.0
"Line.L79"           2      -36.2      -19.1        0.5        0.2    -0.3     0.8
"Line.L72"           1        0.0        0.0        0.0        0.0     0.0     0.0      115.7       58.1       75.1       37.7
"Line.L72"           2        0.0        0.0        0.0        0.0     0.0     0.0
"Line.L74"           1        0.0        0.0        0.0        0.0     0.0     0.0       75.6       37.9       35.0       17.6
"Line.L74"           2        0.0        0.0        0.0        0.0     0.0     0.0
"Line.L75"           1        0.0        0.0        0.0        0.0     0.0     0.0       39.5       19.8        0.0        0.0
"Line.L75"           2        0.0        0.0        0.0        0.0     0.0     0.0
"Line.L66"           1        0.0        0.0        0.0        0.0     0.0     0.0      118.4       59.4       78.0       39.1
"Line.L66"           2        0.0        0.0        0.0        0.0     0.0     0.0
"Line.L69"           1        0.0        0.0        0.0        0.0     0.0     0.0       98.4       49.4       58.1       29.1
"Line.L69"           2        0.0        0.0        0.0        0.0     0.0     0.0
"Line.L70"           1        0.0        0.0        0.0        0.0     0.0     0.0       58.8       29.5       18.5        9.3
"Line.L70"           2        0.0        0.0        0.0        0.0     0.0     0.0
"Line.L71"           1        0.0        0.0        0.0        0.0     0.0     0.0       39.1       19.6        0.0        0.0
"Line.L71"           2        0.0        0.0        0.0        0.0     0.0     0.0
"Line.L68"           1      428.5      217.4       -0.5       -0.6     0.1    -1.2      427.6      215.4      327.1      164.8
"Line.L68"           2     -428.3     -217.0        0.5        0.6    -0.1     1.2
"Line.L96"           1      115.8       58.1       -0.0       -0.0     0.1    -0.0      115.3       57.7        0.0        0.0
"Line.L96"           2     -115.8      -58.0        0.0        0.0    -0.1     0.0
"Line.L97"           1       75.9       37.0        0.5        0.2    -0.2     0.9       75.8       37.9        0.0        0.0
"Line.L97"           2      -75.9      -37.0       -0.5       -0.2     0.2    -0.8
"Line.L98"           1       36.6       18.2        0.4       -0.3    -0.8     0.2       36.0       18.0        0.0        0.0
"Line.L98"           2      -36.6      -18.2       -0.4        0.3     0.8    -0.2
"Line.SW5"           1      312.5      159.0       -0.4       -0.6    -0.0    -1.2        0.0        0.0        0.0        0.0
"Line.SW5"           2     -312.5     -159.0        0.4        0.6     0.0     1.2
"Line.L118"          1      312.5      159.0       -0.4       -0.6    -0.0    -1.2      311.6      157.0      216.3      109.0
"Line.L118"          2     -312.4     -158.7        0.4        0.6     0.1     1.2
"Line.L100"          1        0.0        0.0        0.0        0.0     0.0     0.0       99.6       50.0       59.0       29.6
"Line.L100"          2        0.0        0.0        0.0        0.0     0.0     0.0
"Line.L102"          1        0.0        0.0        0.0        0.0     0.0     0.0       79.5       39.8       38.9       19.5
"Line.L102"          2        0.0        0.0        0.0        0.0     0.0     0.0
"Line.L103"          1        0.0        0.0        0.0        0.0     0.0     0.0       39.5       19.8        0.0        0.0
"Line.L103"          2        0.0        0.0        0.0        0.0     0.0     0.0
"Line.L101"          1      211.4      108.4       -1.6        0.2     2.3    -1.8      211.8      106.8      147.0       74.1
"Line.L101"          2     -211.4     -108.3        1.6       -0.2    -2.3     1.9
"Line.L104"          1        0.0        0.0        0.0        0.0     0.0     0.0       79.9       40.0       37.8       18.9
"Line.L104"          2        0.0        0.0        0.0        0.0     0.0     0.0
"Line.L106"          1        0.0        0.0        0.0        0.0     0.0     0.0       39.8       19.9        0.0        0.0
"Line.L106"          2        0.0        0.0        0.0        0.0     0.0     0.0
"Line.L105"          1      132.7       70.6       -1.7       -0.9     0.9    -3.2      131.7       66.4       91.4       46.1
"Line.L105"          2     -132.7      -70.6        1.7        1.0    -0.8     3.3
"Line.L107"          1        0.0        0.0        0.0        0.0     0.0     0.0      131.6       66.2       91.3       45.9
"Line.L107"          2        0.0        0.0        0.0        0.0     0.0     0.0
"Line.L109"          1        0.0        0.0        0.0        0.0     0.0     0.0       92.1       46.2       52.0       26.1
"Line.L109"          2        0.0        0.0        0.0        0.0     0.0     0.0
"Line.L111"          1        0.0        0.0        0.0        0.0     0.0     0.0       72.5       36.3       32.5       16.3
"Line.L111"          2        0.0        0.0        0.0        0.0     0.0     0.0
"Line.L112"          1        0.0        0.0        0.0        0.0     0.0     0.0       54.1       27.1       14.1        7.1
"Line.L112"          2        0.0        0.0        0.0        0.0     0.0     0.0
"Line.L113"          1        0.0        0.0        0.0        0.0     0.0     0.0       19.1        9.5        0.0        0.0
"Line.L113"          2        0.0        0.0        0.0        0.0     0.0     0.0
"Line.L110"          1        0.0        0.0        0.0        0.0     0.0     0.0       19.2        9.6        0.0        0.0
"Line.L110"          2        0.0        0.0        0.0        0.0     0.0     0.0
"Line.L108"          1        0.0       -0.0       -0.0       -0.0    -0.0    -0.0        0.0        0.0        0.0        0.0
"Line.L108"          2       -0.0        0.0       -0.0        0.0    -0.0     0.0
"Line.SW10"          1        0.0        0.0        0.0        0.0     0.0    -0.0        0.0        0.0        0.0        0.0
"Line.SW10"          2        0.0       -0.0        0.0       -0.0     0.0    -0.0
"Line.L64"           1      203.9      127.2        0.8       -1.1    -1.6     0.3      202.7      126.2      137.9       85.8
"Line.L64"           2     -203.6     -127.1       -0.7        1.1     1.7    -0.3
"Line.L65"           1       75.4       35.1        0.7       -0.7    -1.7     0.3       74.2       34.6       33.2       15.5
"Line.L65"           2      -75.3      -35.1       -0.7        0.7     1.7    -0.2
"Line.L63"           1      276.9      159.7        1.0       -0.2    -0.5     1.5      277.0      160.8      188.4      109.3
"Line.L63"           2     -276.5     -159.5       -1.0        0.2     0.6    -1.5
"Line.L62"           1      317.2      180.7        0.5       -0.4    -0.2     0.7      317.0      180.7      215.6      122.9
"Line.L62"           2     -316.9     -180.6       -0.5        0.4     0.2    -0.7
"Line.L61"           1      354.5      199.2        0.9       -0.7    -0.9     0.9      354.0      199.2      265.9      149.6
"Line.L61"           2     -354.0     -199.0       -0.9        0.7     1.0    -0.8
"Line.L60"           1       -0.0       -0.0        0.0        0.0     0.0     0.0        0.0        0.0        0.0        0.0
"Line.L60"           2        0.0       -0.0       -0.0        0.0     0.0     0.0
"Line.L57"           1        0.0        0.0        0.0        0.0     0.0     0.0       39.6       19.8        0.0        0.0
"Line.L57"           2        0.0        0.0        0.0        0.0     0.0     0.0
"Line.L59"           1        0.0        0.0        0.0        0.0     0.0     0.0       19.8        9.9        0.0        0.0
"Line.L59"           2        0.0        0.0        0.0        0.0     0.0     0.0
"Line.L54"           1       38.2       19.1       -0.2        0.2     0.3    -0.1       37.9       19.0        0.0        0.0
"Line.L54"           2      -38.2      -19.1        0.2       -0.2    -0.3     0.1
"Line.L56"           1       19.7        9.6        0.0        0.2     0.3     0.2       19.8        9.9        0.0        0.0
"Line.L56"           2      -19.7       -9.6       -0.0       -0.2    -0.3    -0.2
"Line.L13"           1     1090.8      648.1       -1.5       -0.5     0.1    -1.8     1088.9      645.5      994.3      589.4
"Line.L13"           2    -1086.0     -638.7        1.5        0.6     0.1     2.3
"Line.SW3"           1      733.2      459.3       -0.8        0.5     0.9    -0.3        0.0        0.0        0.0        0.0
"Line.SW3"           2     -733.2     -459.3        0.8       -0.5    -0.9     0.3
"Line.L114"          1      733.2      459.3       -0.8        0.5     0.9    -0.3      732.8      459.1      626.0      392.2
"Line.L114"          2     -732.3     -457.2        0.8       -0.4    -0.9     0.3
"Line.L35"           1        0.0        0.0        0.0        0.0     0.0     0.0       75.8       38.0        0.0        0.0
"Line.L35"           2        0.0        0.0        0.0        0.0     0.0     0.0
"Line.L38"           1        0.0        0.0        0.0        0.0     0.0     0.0       39.6       19.8        0.0        0.0
"Line.L38"           2        0.0        0.0        0.0        0.0     0.0     0.0
"Line.L39"           1        0.0        0.0        0.0        0.0     0.0     0.0       19.8        9.9        0.0        0.0
"Line.L39"           2        0.0        0.0        0.0        0.0     0.0     0.0
"Line.L37"           1        0.0        0.0        0.0        0.0     0.0     0.0       36.2       18.1        0.0        0.0
"Line.L37"           2        0.0        0.0        0.0        0.0     0.0     0.0
"Line.L36"           1      616.0      399.2       -0.2        0.0     0.3    -0.1      615.5      398.8      503.2      326.0
"Line.L36"           2     -615.5     -398.2        0.2       -0.0    -0.3     0.1
"Line.L40"           1        0.0        0.0        0.0        0.0     0.0     0.0       19.8        9.9        0.0        0.0
"Line.L40"           2        0.0        0.0        0.0        0.0     0.0     0.0
"Line.L41"           1      595.4      388.3       -0.4        0.1     0.6    -0.2      595.1      387.8      486.5      317.1
"Line.L41"           2     -595.0     -387.4        0.4       -0.1    -0.6     0.2
"Line.L42"           1        0.0        0.0        0.0        0.0     0.0     0.0       38.6       19.3        0.0        0.0
"Line.L42"           2        0.0        0.0        0.0        0.0     0.0     0.0
"Line.L43"           1      536.5      358.2       -0.2       -0.2     0.0    -0.2      535.8      357.5      428.4      285.8
"Line.L43"           2     -536.2     -357.6        0.3        0.2    -0.0     0.2
"Line.L44"           1        0.0        0.0        0.0        0.0     0.0     0.0       38.8       19.4        0.0        0.0
"Line.L44"           2        0.0        0.0        0.0        0.0     0.0     0.0
"Line.L46"           1        0.0        0.0        0.0        0.0     0.0     0.0       19.8        9.9        0.0        0.0
"Line.L46"           2        0.0        0.0        0.0        0.0     0.0     0.0
"Line.L45"           1      496.8      337.2        0.1        0.0     0.0     0.4      496.4      337.3      386.0      262.3
"Line.L45"           2     -496.5     -336.5       -0.1       -0.0    -0.0    -0.4
"Line.L47"           1      195.3      139.5        0.0        0.0     0.0     0.0      194.8      139.2       84.4       60.3
"Line.L47"           2     -195.3     -139.5       -0.0       -0.0    -0.0    -0.0
"Line.L48"           1      200.0      124.7        0.1        0.0    -0.0     0.4      199.5      124.8       91.5       57.2
"Line.L48"           2     -199.9     -124.6       -0.1       -0.0     0.0    -0.4
"Line.L49"           1       60.4       30.3        0.2       -0.3    -0.6    -0.0       59.7       29.8        0.0        0.0
"Line.L49"           2      -60.4      -30.3       -0.2        0.3     0.6     0.0
"Line.L50"           1       20.2       10.4       -0.2       -0.1     0.0    -0.3       19.8        9.9        0.0        0.0
"Line.L50"           2      -20.2      -10.4        0.2        0.1    -0.0     0.3
"Line.L51"           1        0.0       -0.0       -0.0       -0.0    -0.0    -0.0        0.0        0.0        0.0        0.0
"Line.L51"           2       -0.0       -0.0       -0.0        0.0    -0.0    -0.0
"Line.SW9"           1        0.0       -0.0        0.0       -0.0     0.0    -0.0        0.0        0.0        0.0        0.0
"Line.SW9"           2        0.0       -0.0        0.0       -0.0     0.0    -0.0
"Line.L32"           1        0.0       -0.0       -0.0        0.0     0.0    -0.0        0.0        0.0        0.0        0.0
"Line.L32"           2       -0.0        0.0       -0.0        0.0    -0.0     0.0
"Line.L31"           1       40.4       20.0        0.3       -0.3    -0.7     0.3       39.8       19.9        0.0        0.0
"Line.L31"           2      -40.4      -20.0       -0.3        0.3     0.7    -0.3
"Line.L30"           1       77.2       39.1       -0.0       -0.4    -0.6    -0.4       76.2       38.1        0.0        0.0
"Line.L30"           2      -77.2      -39.1        0.0        0.4     0.6     0.4
"Line.L26"           1      115.7       59.2       -0.4       -0.5    -0.5    -1.1      114.6       57.3       51.8       25.9
"Line.L26"           2     -115.7      -59.2        0.4        0.6     0.5     1.2
"Line.L25"           1        0.0        0.0        0.0        0.0     0.0     0.0       77.9       39.0        0.0        0.0
"Line.L25"           2        0.0        0.0        0.0        0.0     0.0     0.0
"Line.L28"           1        0.0        0.0        0.0        0.0     0.0     0.0       39.8       19.9        0.0        0.0
"Line.L28"           2        0.0        0.0        0.0        0.0     0.0     0.0
"Line.L33"           1        0.0        0.0        0.0        0.0     0.0     0.0       19.8        9.9        0.0        0.0
"Line.L33"           2        0.0        0.0        0.0        0.0     0.0     0.0
"Line.L27"           1        0.0        0.0        0.0        0.0     0.0     0.0       38.0       19.0        0.0        0.0
"Line.L27"           2        0.0        0.0        0.0        0.0     0.0     0.0
"Line.L29"           1        0.0        0.0        0.0        0.0     0.0     0.0       38.0       19.0        0.0        0.0
"Line.L29"           2        0.0        0.0        0.0        0.0     0.0     0.0
"Line.L24"           1      194.7       99.3       -0.4       -0.9    -1.0    -1.5      192.9       96.7      123.1       61.7
"Line.L24"           2     -194.7      -99.2        0.4        0.9     1.1     1.6
"Line.L23"           1        0.0        0.0        0.0        0.0     0.0     0.0       39.8       19.9        0.0        0.0
"Line.L23"           2        0.0        0.0        0.0        0.0     0.0     0.0
"Line.SW6"           1      235.1      119.3       -0.1       -1.2    -1.7    -1.2        0.0        0.0        0.0        0.0
"Line.SW6"           2     -235.1     -119.3        0.1        1.2     1.7     1.2
"Line.L22"           1      235.2      119.5       -0.1       -1.2    -1.7    -1.1      233.0      117.0      153.1       76.8
"Line.L22"           2     -235.1     -119.3        0.1        1.2     1.7     1.2
"Line.L21"           1        0.0        0.0        0.0        0.0     0.0     0.0       39.0       19.5        0.0        0.0
"Line.L21"           2        0.0        0.0        0.0        0.0     0.0     0.0
"Line.L19"           1      273.9      138.5       -0.0       -0.8    -1.1    -0.7      272.3      136.8      178.9       89.9
"Line.L19"           2     -273.8     -138.3        0.0        0.8     1.1     0.7
"Line.L18"           1        0.0        0.0        0.0        0.0     0.0     0.0       78.2       39.1       37.2       18.6
"Line.L18"           2        0.0        0.0        0.0        0.0     0.0     0.0
"Line.L20"           1        0.0        0.0        0.0        0.0     0.0     0.0       38.1       19.0        0.0        0.0
"Line.L20"           2        0.0        0.0        0.0        0.0     0.0     0.0
"Line.L12"           1        0.0        0.0        0.0        0.0     0.0     0.0      138.0       22.1       92.0       14.7
"Line.L12"           2        0.0        0.0        0.0        0.0     0.0     0.0
"Line.L9"            1        0.0        0.0        0.0        0.0     0.0     0.0       97.1       48.7       55.5       27.8
"Line.L9"            2        0.0        0.0        0.0        0.0     0.0     0.0
"Line.L11"           1        0.0        0.0        0.0        0.0     0.0     0.0       57.0       28.6       15.5        7.7
"Line.L11"           2        0.0        0.0        0.0        0.0     0.0     0.0
"Line.L15"           1        0.0        0.0        0.0        0.0     0.0     0.0       19.2        9.6        0.0        0.0
"Line.L15"           2        0.0        0.0        0.0        0.0     0.0     0.0
"Line.L14"           1        0.0        0.0        0.0        0.0     0.0     0.0       37.5       18.8        0.0        0.0
"Line.L14"           2        0.0        0.0        0.0        0.0     0.0     0.0
"Line.L8"            1        0.0        0.0        0.0        0.0     0.0     0.0       19.8        9.9        0.0        0.0
"Line.L8"            2        0.0        0.0        0.0        0.0     0.0     0.0
"Line.L2"            1        0.0        0.0        0.0        0.0     0.0     0.0       98.8       49.5       56.5       28.3
"Line.L2"            2        0.0        0.0        0.0        0.0     0.0     0.0
"Line.L5"            1        0.0        0.0        0.0        0.0     0.0     0.0       58.6       29.4       16.4        8.2
"Line.L5"            2        0.0        0.0        0.0        0.0     0.0     0.0
"Line.L6"            1        0.0        0.0        0.0        0.0     0.0     0.0       38.8       19.4        0.0        0.0
"Line.L6"            2        0.0        0.0        0.0        0.0     0.0     0.0
"Line.L4"            1        0.0        0.0        0.0        0.0     0.0     0.0       39.8       19.9        0.0        0.0
"Line.L4"            2        0.0        0.0        0.0        0.0     0.0     0.0
"Line.L1"            1        0.0        0.0        0.0        0.0     0.0     0.0       19.8        9.9        0.0        0.0
"Line.L1"            2        0.0        0.0        0.0        0.0     0.0     0.0
"Transformer.REG4"   1        0.0        0.0        0.0       -0.0     0.0    -0.0        0.0        0.0        0.0        0.0
"Transformer.REG4"   2       -0.0        0.0       -0.0        0.0    -0.0     0.0
"Transformer.REG3"   1        0.0        0.0        0.0        0.0     0.0    -0.0        0.0        0.0        0.0        0.0
"Transformer.REG3"   2       -0.0       -0.0       -0.0       -0.0    -0.0     0.0
"Transformer.REG2A"  1        0.0        0.0        0.0        0.0     0.0     0.0        0.0        0.0        0.0        0.0
"Transformer.REG2A"  2        0.0        0.0        0.0        0.0     0.0     0.0
"Capacitor.C92C"     1        0.0        0.0        0.0        0.0     0.0     0.0        0.0        0.0        0.0        0.0
"Capacitor.C92C"     2        0.0        0.0        0.0        0.0     0.0     0.0
"Capacitor.C90B"     1        0.0        0.0        0.0        0.0     0.0     0.0        0.0        0.0        0.0        0.0
"Capacitor.C90B"     2        0.0        0.0        0.0        0.0     0.0     0.0
"Capacitor.C88A"     1        0.0        0.0        0.0        0.0     0.0     0.0        0.0        0.0        0.0        0.0
"Capacitor.C88A"     2        0.0        0.0        0.0        0.0     0.0     0.0
"Capacitor.C83"      1        0.0     -560.8       -0.0       -0.1     0.0    -0.3        0.0        0.0        0.0        0.0
"Capacitor.C83"      2        0.0        0.0        0.0        0.0     0.0     0.0
"Transformer.REG1A"  1       -0.0       -0.0       -0.0        0.0    -0.0    -0.0        0.0        0.0        0.0        0.0
"Transformer.REG1A"  2        0.0        0.0        0.0       -0.0     0.0     0.0
"Load.S1A"           1        0.0        0.0        0.0        0.0     0.0     0.0
"Load.S7A"           1        0.0        0.0        0.0        0.0     0.0     0.0
"Load.S52A"          1        0.0        0.0        0.0        0.0     0.0     0.0
"Load.S53A"          1        0.0        0.0        0.0        0.0     0.0     0.0
"Load.S60A"          1        0.0        0.0        0.0        0.0     0.0     0.0
"Load.S76A"          1        0.0        0.0        0.0        0.0     0.0     0.0
"Load.S76B"          1        0.0        0.0        0.0        0.0     0.0     0.0
"Load.S76C"          1        0.0        0.0        0.0        0.0     0.0     0.0
"Load.S86B"          1        0.0        0.0        0.0        0.0     0.0     0.0
"Load.S87B"          1        0.0        0.0        0.0        0.0     0.0     0.0
"Load.S95B"          1        0.0        0.0        0.0        0.0     0.0     0.0
"Load.S17C"          1        0.0        0.0        0.0        0.0     0.0     0.0
"Load.S16C"          1        0.0        0.0        0.0        0.0     0.0     0.0
"Load.S34C"          1        0.0        0.0        0.0        0.0     0.0     0.0
...