data/models/123_10sw/ieee123_VLN_Node.Txt

LINE-GROUND and LINE-LINE VOLTAGES BY BUS & NODE

Bus  Node    VLN (kV)   Angle      pu     Base kV    Node-Node   VLL (kV)  Angle      pu

150  1       2.4018 /_    0.0   0.99999     4.160        1-2       4.16 /_   30.0   0.99999
   - 2       2.4018 /_ -120.0   0.99999     4.160        2-3       4.16 /_  -90.0         1
   - 3       2.4018 /_  120.0   0.99999     4.160        3-1       4.16 /_  150.0   0.99999
149  1       2.4018 /_    0.0   0.99999     4.160        1-2       4.16 /_   30.0   0.99999
   - 2       2.4018 /_ -120.0   0.99999     4.160        2-3       4.16 /_  -90.0         1
   - 3       2.4018 /_  120.0   0.99999     4.160        3-1       4.16 /_  150.0   0.99999
1 .. 1       2.3735 /_   -0.6   0.98822     4.160        1-2     4.1233 /_   29.7   0.99117
   - 2       2.3973 /_ -120.2   0.99812     4.160        2-3     4.1394 /_  -90.5   0.99506
   - 3       2.3784 /_  119.6   0.99028     4.160        3-1       4.12 /_  149.4   0.99038
7 .. 1       2.3525 /_   -1.1   0.97947     4.160        1-2     4.0968 /_   29.5    0.9848
   - 2       2.3941 /_ -120.4   0.99681     4.160        2-3     4.1251 /_  -90.8   0.99162
   - 3       2.3632 /_  119.3   0.98394     4.160        3-1     4.0925 /_  149.0   0.98378
8 .. 1       2.3389 /_   -1.4    0.9738     4.160        1-2     4.0793 /_   29.4   0.98061
   - 2       2.3918 /_ -120.6   0.99587     4.160        2-3     4.1156 /_  -91.0   0.98934
   - 3       2.3531 /_  119.1   0.97974     4.160        3-1     4.0745 /_  148.8   0.97944
13 . 1        2.321 /_   -1.8   0.96637     4.160        1-2     4.0551 /_   29.2   0.97479
   - 2       2.3876 /_ -120.7   0.99409     4.160        2-3     4.1016 /_  -91.3   0.98596
   - 3        2.338 /_  118.8   0.97345     4.160        3-1     4.0482 /_  148.4   0.97313
152  1        2.321 /_   -1.8   0.96637     4.160        1-2     4.0551 /_   29.2   0.97479
   - 2       2.3876 /_ -120.7   0.99409     4.160        2-3     4.1016 /_  -91.3   0.98596
   - 3        2.338 /_  118.8   0.97345     4.160        3-1     4.0482 /_  148.4   0.97313
52 . 1       2.3078 /_   -2.2   0.96087     4.160        1-2     4.0388 /_   29.0   0.97086
   - 2       2.3865 /_ -120.9   0.99365     4.160        2-3     4.0933 /_  -91.6   0.98396
   - 3       2.3282 /_  118.6   0.96935     4.160        3-1      4.031 /_  148.1   0.96899
53 . 1       2.3019 /_   -2.4   0.95841     4.160        1-2     4.0311 /_   28.9   0.96902
   - 2       2.3856 /_ -121.0   0.99327     4.160        2-3      4.089 /_  -91.7   0.98294
   - 3       2.3233 /_  118.5   0.96733     4.160        3-1     4.0227 /_  147.9   0.96699
54 . 1       2.2986 /_   -2.5   0.95705     4.160        1-2     4.0266 /_   28.9   0.96794
   - 2       2.3848 /_ -121.0   0.99294     4.160        2-3     4.0864 /_  -91.8    0.9823
   - 3       2.3203 /_  118.4   0.96608     4.160        3-1     4.0176 /_  147.8   0.96576
57 . 1       2.2918 /_   -2.8   0.95423     4.160        1-2     4.0134 /_   28.7   0.96475
   - 2         2.38 /_ -121.2   0.99095     4.160        2-3     4.0766 /_  -92.0   0.97996
   - 3       2.3121 /_  118.2   0.96268     4.160        3-1     4.0063 /_  147.6   0.96305
60 . 1       2.2778 /_   -3.4   0.94837     4.160        1-2     3.9858 /_   28.3   0.95813
   - 2       2.3722 /_ -121.4   0.98768     4.160        2-3     4.0576 /_  -92.4   0.97538
   - 3       2.2934 /_  117.8   0.95487     4.160        3-1      3.982 /_  147.1   0.95722
160  1       2.2778 /_   -3.4   0.94837     4.160        1-2     3.9858 /_   28.3   0.95813
   - 2       2.3722 /_ -121.4   0.98768     4.160        2-3     4.0576 /_  -92.4   0.97538
   - 3       2.2934 /_  117.8   0.95487     4.160        3-1      3.982 /_  147.1   0.95722
67 . 1       2.2737 /_   -3.7   0.94667     4.160        1-2     3.9787 /_   28.2   0.95642
   - 2       2.3719 /_ -121.5   0.98754     4.160        2-3     4.0516 /_  -92.5   0.97395
   - 3       2.2863 /_  117.7   0.95193     4.160        3-1      3.975 /_  146.9   0.95553
72 . 1       2.2753 /_   -3.8   0.94733     4.160        1-2     3.9784 /_   28.1   0.95634
   - 2       2.3713 /_ -121.5   0.98729     4.160        2-3     4.0507 /_  -92.6   0.97374
   - 3       2.2841 /_  117.5   0.95098     4.160        3-1      3.974 /_  146.8   0.95528
76 . 1       2.2755 /_   -3.8   0.94743     4.160        1-2     3.9783 /_   28.0   0.95632
   - 2       2.3711 /_ -121.6   0.98724     4.160        2-3     4.0507 /_  -92.6   0.97373
   - 3       2.2843 /_  117.5   0.95109     4.160        3-1     3.9747 /_  146.8   0.95546
N86  1   0.00014886 /_    4.5 0.00053717     0.480        1-2 0.00010774 /_ -136.0 0.00022447
   - 2   0.00024196 /_   21.0 0.0008731     0.480        2-3     2.3331 /_  -61.4    4.8607
   - 3       2.3331 /_  118.6    8.4189     0.480        3-1     2.3332 /_  118.6    4.8608
86 . 1   0.00014887 /_    4.5 0.00053718     0.480        1-2 0.00010775 /_ -136.0 0.00022448
   - 2   0.00024196 /_   21.0 0.00087311     0.480        2-3     2.3331 /_  -61.4    4.8607
   - 3       2.3331 /_  118.6    8.4189     0.480        3-1     2.3332 /_  118.6    4.8608
87 . 1    0.0001489 /_    4.5 0.00053728     0.480        1-2 0.00010782 /_ -136.0 0.00022462
   - 2   0.00024204 /_   21.0 0.00087337     0.480        2-3     2.3331 /_  -61.4    4.8607
   - 3       2.3331 /_  118.6    8.4189     0.480        3-1     2.3332 /_  118.6    4.8608
89 . 1   0.00014892 /_    4.6 0.00053736     0.480        1-2  0.0001079 /_ -136.0 0.0002248
   - 2   0.00024217 /_   21.0 0.00087385     0.480        2-3     2.3331 /_  -61.4    4.8607
   - 3       2.3331 /_  118.6    8.4189     0.480        3-1     2.3332 /_  118.6    4.8608
91 . 1   0.00014892 /_    4.6 0.00053737     0.480        1-2 0.00010799 /_ -136.0 0.00022497
   - 2   0.00024225 /_   21.1 0.00087415     0.480        2-3     2.3331 /_  -61.4    4.8607
   - 3       2.3331 /_  118.6    8.4189     0.480        3-1     2.3332 /_  118.6    4.8608
93 . 1   0.00036454 /_ -119.0 0.0013154     0.480        1-2 0.00017447 /_ -128.1 0.00036349
   - 2    0.0001942 /_ -110.9 0.00070074     0.480        2-3     2.3331 /_  -61.4    4.8605
   - 3       2.3329 /_  118.6    8.4182     0.480        3-1     2.3331 /_  118.6    4.8607
95 . 1   0.00097491 /_ -128.8 0.0035179     0.480        1-2  0.0002653 /_ -123.8 0.0005527
   - 2   0.00071098 /_ -130.6 0.0025655     0.480        2-3     2.3329 /_  -61.3    4.8603
   - 3       2.3327 /_  118.7    8.4174     0.480        3-1     2.3331 /_  118.7    4.8605
17 . 1   0.00097491 /_ -128.8 0.0035179     0.480        1-2  0.0002653 /_ -123.8 0.0005527
   - 2   0.00071098 /_ -130.6 0.0025655     0.480        2-3     2.3329 /_  -61.3    4.8603
   - 3       2.3327 /_  118.7    8.4174     0.480        3-1     2.3331 /_  118.7    4.8606
15 . 3       2.3343 /_  118.8   0.97191     4.160
16 . 3       2.3319 /_  118.7   0.97089     4.160
34 . 3       2.3354 /_  118.8   0.97237     4.160
96 . 2   0.00071079 /_ -130.7 0.0025648     0.480
94 . 1   0.00036428 /_ -119.1 0.0013145     0.480
92 . 3       2.3327 /_  118.6   0.97124     4.160
90 . 2   0.00024214 /_   21.0 0.00087376     0.480
88 . 1   0.00014888 /_    4.5 0.00053724     0.480
77 . 1        2.278 /_   -3.9   0.94845     4.160        1-2     3.9828 /_   27.9   0.95741
   - 2       2.3737 /_ -121.7   0.98831     4.160        2-3     4.0544 /_  -92.7    0.9746
   - 3        2.286 /_  117.4   0.95178     4.160        3-1      3.978 /_  146.7   0.95626
78 . 1       2.2786 /_   -3.9   0.94872     4.160        1-2     3.9841 /_   27.9   0.95771
   - 2       2.3747 /_ -121.7   0.98871     4.160        2-3     4.0555 /_  -92.8   0.97488
   - 3       2.2862 /_  117.4   0.95188     4.160        3-1     3.9789 /_  146.7   0.95646
80 . 1       2.2831 /_   -4.0    0.9506     4.160        1-2     3.9911 /_   27.9   0.95941
   - 2       2.3786 /_ -121.7   0.99034     4.160        2-3     4.0612 /_  -92.9   0.97625
   - 3       2.2876 /_  117.3   0.95248     4.160        3-1     3.9832 /_  146.6    0.9575
81 . 1       2.2848 /_   -4.0   0.95132     4.160        1-2     3.9939 /_   27.8   0.96007
   - 2       2.3806 /_ -121.7   0.99118     4.160        2-3     4.0637 /_  -92.9   0.97686
   - 3       2.2879 /_  117.2   0.95258     4.160        3-1     3.9848 /_  146.6   0.95788
84 . 3       2.2812 /_  117.2   0.94978     4.160
85 . 3        2.278 /_  117.2   0.94846     4.160
82 . 1       2.2866 /_   -4.0   0.95204     4.160        1-2     3.9977 /_   27.8     0.961
   - 2       2.3836 /_ -121.8   0.99243     4.160        2-3     4.0678 /_  -92.9   0.97782
   - 3       2.2895 /_  117.2   0.95325     4.160        3-1     3.9879 /_  146.6   0.95863
83 . 1       2.2892 /_   -4.1   0.95312     4.160        1-2     4.0023 /_   27.8   0.96209
   - 2       2.3862 /_ -121.8   0.99352     4.160        2-3     4.0719 /_  -93.0   0.97881
   - 3       2.2912 /_  117.2   0.95397     4.160        3-1     3.9913 /_  146.5   0.95945
79 . 1       2.2779 /_   -3.9   0.94844     4.160        1-2     3.9835 /_   27.9   0.95757
   - 2       2.3749 /_ -121.7   0.98883     4.160        2-3     4.0554 /_  -92.8   0.97487
   - 3       2.2861 /_  117.4   0.95184     4.160        3-1     3.9786 /_  146.7   0.95641
73 . 3       2.2787 /_  117.5   0.94878     4.160
74 . 3       2.2743 /_  117.5   0.94694     4.160
75 . 3       2.2717 /_  117.4   0.94583     4.160
68 . 1       2.2697 /_   -3.7   0.94502     4.160
69 . 1       2.2652 /_   -3.7   0.94313     4.160
70 . 1        2.262 /_   -3.8    0.9418     4.160
71 . 1       2.2602 /_   -3.8   0.94104     4.160
97 . 1       2.2712 /_   -3.7   0.94564     4.160        1-2     3.9748 /_   28.1   0.95549
   - 2       2.3706 /_ -121.5   0.98701     4.160        2-3     4.0489 /_  -92.5   0.97329
   - 3       2.2845 /_  117.6   0.95118     4.160        3-1      3.972 /_  146.9   0.95481
98 . 1       2.2706 /_   -3.7   0.94539     4.160        1-2     3.9738 /_   28.1   0.95523
   - 2         2.37 /_ -121.5   0.98675     4.160        2-3      4.048 /_  -92.6   0.97307
   - 3       2.2841 /_  117.6   0.95101     4.160        3-1     3.9712 /_  146.8   0.95462
99 . 1       2.2712 /_   -3.7   0.94565     4.160        1-2     3.9731 /_   28.1   0.95508
   - 2        2.368 /_ -121.5   0.98592     4.160        2-3     4.0462 /_  -92.6   0.97264
   - 3       2.2835 /_  117.6   0.95075     4.160        3-1     3.9701 /_  146.8   0.95436
100  1       2.2717 /_   -3.7   0.94583     4.160        1-2      3.973 /_   28.1   0.95506
   - 2       2.3678 /_ -121.5   0.98586     4.160        2-3     4.0459 /_  -92.6   0.97257
   - 3       2.2826 /_  117.6   0.95038     4.160        3-1     3.9694 /_  146.8   0.95419
197  1       2.2712 /_   -3.7   0.94564     4.160        1-2     3.9748 /_   28.1   0.95549
   - 2       2.3706 /_ -121.5   0.98701     4.160        2-3     4.0489 /_  -92.5   0.97329
   - 3       2.2845 /_  117.6   0.95118     4.160        3-1      3.972 /_  146.9   0.95481
101  1       2.2693 /_   -3.8   0.94484     4.160        1-2     3.9719 /_   28.1   0.95479
   - 2       2.3699 /_ -121.5   0.98671     4.160        2-3      4.047 /_  -92.6   0.97284
   - 3       2.2831 /_  117.6    0.9506     4.160        3-1     3.9698 /_  146.8   0.95427
102  3       2.2794 /_  117.6   0.94904     4.160
103  3       2.2751 /_  117.5   0.94725     4.160
104  3       2.2704 /_  117.5   0.94532     4.160
105  1       2.2661 /_   -3.8    0.9435     4.160        1-2     3.9689 /_   28.1   0.95406
   - 2       2.3694 /_ -121.6   0.98652     4.160        2-3     4.0456 /_  -92.6    0.9725
   - 3       2.2838 /_  117.6   0.95089     4.160        3-1      3.969 /_  146.8   0.95409
106  2       2.3665 /_ -121.6   0.98532     4.160
107  2       2.3628 /_ -121.6   0.98378     4.160
108  1       2.2625 /_   -3.9   0.94201     4.160        1-2     3.9659 /_   28.1   0.95334
   - 2        2.371 /_ -121.6   0.98717     4.160        2-3     4.0455 /_  -92.6   0.97247
   - 3       2.2835 /_  117.7   0.95074     4.160        3-1     3.9679 /_  146.8   0.95383
109  1       2.2525 /_   -4.0   0.93786     4.160
110  1       2.2479 /_   -4.0   0.93592     4.160
112  1       2.2463 /_   -4.0   0.93528     4.160
113  1       2.2415 /_   -4.1   0.93328     4.160
114  1       2.2405 /_   -4.1   0.93284     4.160
111  1        2.246 /_   -4.0   0.93514     4.160
300  1       2.2625 /_   -3.9   0.94201     4.160        1-2     3.9659 /_   28.1   0.95334
   - 2        2.371 /_ -121.6   0.98717     4.160        2-3     4.0455 /_  -92.6   0.97247
   - 3       2.2835 /_  117.7   0.95074     4.160        3-1     3.9679 /_  146.8   0.95383
64 . 1       2.2738 /_   -3.4   0.94671     4.160        1-2     3.9737 /_   28.3   0.95523
   - 2        2.363 /_ -121.3   0.98387     4.160        2-3     4.0413 /_  -92.4   0.97146
   - 3       2.2808 /_  117.7   0.94963     4.160        3-1     3.9658 /_  147.1   0.95332
65 . 1       2.2723 /_   -3.4   0.94607     4.160        1-2     3.9706 /_   28.3   0.95448
   - 2       2.3623 /_ -121.3   0.98358     4.160        2-3     4.0354 /_  -92.4   0.97004
   - 3       2.2735 /_  117.7   0.94659     4.160        3-1     3.9583 /_  147.2   0.95151
66 . 1       2.2729 /_   -3.4   0.94632     4.160        1-2     3.9705 /_   28.3   0.95446
   - 2        2.363 /_ -121.2   0.98384     4.160        2-3     4.0332 /_  -92.4   0.96953
   - 3       2.2697 /_  117.7   0.94502     4.160        3-1      3.956 /_  147.2   0.95095
63 . 1       2.2745 /_   -3.4     0.947     4.160        1-2     3.9785 /_   28.3   0.95638
   - 2       2.3675 /_ -121.4   0.98572     4.160        2-3     4.0483 /_  -92.4   0.97315
   - 3       2.2861 /_  117.8   0.95182     4.160        3-1      3.972 /_  147.1   0.95482
62 . 1       2.2759 /_   -3.4    0.9476     4.160        1-2     3.9815 /_   28.3   0.95709
   - 2       2.3695 /_ -121.4   0.98657     4.160        2-3     4.0518 /_  -92.4   0.97399
   - 3       2.2885 /_  117.8   0.95283     4.160        3-1     3.9758 /_  147.1   0.95572
61 . 1       2.2778 /_   -3.4   0.94837     4.160        1-2     3.9858 /_   28.3   0.95813
   - 2       2.3722 /_ -121.4   0.98768     4.160        2-3     4.0576 /_  -92.4   0.97538
   - 3       2.2934 /_  117.8   0.95487     4.160        3-1      3.982 /_  147.1   0.95722
58 . 2       2.3785 /_ -121.2   0.99029     4.160
59 . 2       2.3777 /_ -121.2   0.98996     4.160
55 . 1       2.2981 /_   -2.5   0.95684     4.160        1-2     4.0262 /_   28.9   0.96783
   - 2       2.3846 /_ -121.0   0.99286     4.160        2-3     4.0861 /_  -91.8   0.98223
   - 3       2.3205 /_  118.4   0.96615     4.160        3-1     4.0174 /_  147.8   0.96573
56 . 1        2.298 /_   -2.5   0.95681     4.160        1-2      4.026 /_   28.9    0.9678
   - 2       2.3842 /_ -121.1   0.99268     4.160        2-3     4.0857 /_  -91.8   0.98215
   - 3       2.3207 /_  118.4   0.96624     4.160        3-1     4.0174 /_  147.8   0.96572
18 . 1       2.2996 /_   -2.3   0.95745     4.160        1-2     4.0243 /_   28.9   0.96737
   - 2       2.3777 /_ -121.0   0.98999     4.160        2-3     4.0736 /_  -91.5   0.97924
   - 3       2.3197 /_  118.7   0.96584     4.160        3-1      4.021 /_  148.1   0.96658
135  1       2.2996 /_   -2.3   0.95745     4.160        1-2     4.0243 /_   28.9   0.96737
   - 2       2.3777 /_ -121.0   0.98999     4.160        2-3     4.0736 /_  -91.5   0.97924
   - 3       2.3197 /_  118.7   0.96584     4.160        3-1      4.021 /_  148.1   0.96658
35 . 1       2.2929 /_   -2.4   0.95468     4.160        1-2     4.0132 /_   28.9   0.96472
   - 2       2.3716 /_ -121.1   0.98744     4.160        2-3     4.0656 /_  -91.6   0.97731
   - 3       2.3172 /_  118.7   0.96477     4.160        3-1     4.0134 /_  148.0   0.96477
36 . 1       2.2908 /_   -2.4   0.95378     4.160        1-2      4.011 /_   28.8   0.96418
   - 2       2.3704 /_ -121.1   0.98694     4.160
38 . 2       2.3688 /_ -121.1   0.98628     4.160
39 . 2       2.3678 /_ -121.1   0.98584     4.160
37 . 1        2.289 /_   -2.4   0.95302     4.160
40 . 1       2.2893 /_   -2.4   0.95315     4.160        1-2      4.008 /_   28.8   0.96345
   - 2       2.3689 /_ -121.1   0.98631     4.160        2-3     4.0611 /_  -91.6   0.97621
   - 3       2.3146 /_  118.6   0.96371     4.160        3-1     4.0079 /_  147.9   0.96343
41 . 3       2.3135 /_  118.6   0.96327     4.160
42 . 1       2.2854 /_   -2.4   0.95156     4.160        1-2     4.0027 /_   28.8   0.96219
   - 2       2.3662 /_ -121.2   0.98521     4.160        2-3     4.0566 /_  -91.7   0.97515
   - 3       2.3125 /_  118.6   0.96282     4.160        3-1     4.0027 /_  147.9   0.96218
43 . 2       2.3631 /_ -121.2   0.98391     4.160
44 . 1       2.2828 /_   -2.5   0.95046     4.160        1-2     3.9989 /_   28.8   0.96128
   - 2       2.3646 /_ -121.2    0.9845     4.160        2-3     4.0535 /_  -91.7    0.9744
   - 3       2.3105 /_  118.6     0.962     4.160        3-1     3.9986 /_  147.8   0.96121
45 . 1       2.2815 /_   -2.5   0.94992     4.160
46 . 1       2.2805 /_   -2.5    0.9495     4.160
47 . 1       2.2803 /_   -2.5   0.94943     4.160        1-2     3.9948 /_   28.7   0.96028
   - 2        2.362 /_ -121.2   0.98343     4.160        2-3     4.0495 /_  -91.7   0.97344
   - 3       2.3081 /_  118.5     0.961     4.160        3-1     3.9938 /_  147.8   0.96006
48 . 1       2.2797 /_   -2.5   0.94916     4.160        1-2     3.9936 /_   28.7   0.96001
   - 2       2.3613 /_ -121.2   0.98315     4.160        2-3     4.0486 /_  -91.7   0.97322
   - 3       2.3076 /_  118.5   0.96079     4.160        3-1     3.9928 /_  147.8   0.95981
49 . 1       2.2796 /_   -2.5   0.94914     4.160        1-2      3.993 /_   28.7   0.95986
   - 2       2.3606 /_ -121.2   0.98286     4.160        2-3      4.048 /_  -91.8   0.97308
   - 3       2.3073 /_  118.5   0.96067     4.160        3-1     3.9922 /_  147.8   0.95966
50 . 1       2.2796 /_   -2.5   0.94912     4.160        1-2     3.9926 /_   28.7   0.95976
   - 2       2.3607 /_ -121.2   0.98288     4.160        2-3     4.0478 /_  -91.8   0.97302
   - 3       2.3065 /_  118.5   0.96031     4.160        3-1     3.9914 /_  147.8   0.95947
51 . 1       2.2792 /_   -2.5   0.94895     4.160        1-2     3.9923 /_   28.7   0.95968
   - 2       2.3609 /_ -121.2   0.98297     4.160        2-3     4.0478 /_  -91.8   0.97302
   - 3       2.3064 /_  118.5    0.9603     4.160        3-1     3.9913 /_  147.8   0.95944
151  1       2.2792 /_   -2.5   0.94895     4.160        1-2     3.9923 /_   28.7   0.95968
   - 2       2.3609 /_ -121.2   0.98297     4.160        2-3     4.0478 /_  -91.8   0.97302
   - 3       2.3064 /_  118.5    0.9603     4.160        3-1     3.9913 /_  147.8   0.95944
250  1       2.2954 /_   -2.5   0.95569     4.160        1-2     4.0174 /_   28.9   0.96573
   - 2       2.3806 /_ -120.9   0.99118     4.160        2-3     4.0691 /_  -91.6   0.97816
   - 3       2.3086 /_  118.7    0.9612     4.160        3-1     4.0105 /_  148.0   0.96405
30 . 1       2.2954 /_   -2.5   0.95569     4.160        1-2     4.0174 /_   28.9   0.96573
   - 2       2.3806 /_ -120.9   0.99118     4.160        2-3     4.0691 /_  -91.6   0.97816
   - 3       2.3086 /_  118.7    0.9612     4.160        3-1     4.0105 /_  148.0   0.96405
29 . 1       2.2947 /_   -2.5   0.95542     4.160        1-2     4.0173 /_   28.9    0.9657
   - 2       2.3807 /_ -120.9   0.99123     4.160        2-3     4.0695 /_  -91.6   0.97824
   - 3       2.3097 /_  118.7   0.96168     4.160        3-1     4.0113 /_  148.0   0.96425
28 . 1        2.295 /_   -2.5   0.95556     4.160        1-2     4.0179 /_   28.9   0.96584
   - 2       2.3804 /_ -121.0   0.99108     4.160        2-3     4.0698 /_  -91.6   0.97832
   - 3       2.3109 /_  118.7   0.96214     4.160        3-1     4.0123 /_  148.0   0.96449
25 . 1       2.2959 /_   -2.4   0.95591     4.160        1-2     4.0188 /_   28.9   0.96605
   - 2       2.3798 /_ -121.0   0.99086     4.160        2-3     4.0701 /_  -91.6   0.97839
   - 3       2.3117 /_  118.7    0.9625     4.160        3-1     4.0132 /_  148.0    0.9647
26 . 1       2.2953 /_   -2.5   0.95566     4.160
   - 3       2.3105 /_  118.7   0.96198     4.160        3-1     4.0119 /_  148.0   0.96439
31 . 3        2.309 /_  118.7   0.96137     4.160
32 . 3        2.308 /_  118.7   0.96095     4.160
27 . 1       2.2944 /_   -2.5    0.9553     4.160
   - 3       2.3104 /_  118.7   0.96195     4.160        3-1     4.0116 /_  148.0   0.96433
33 . 1       2.2913 /_   -2.5   0.95398     4.160
23 . 1       2.2974 /_   -2.4   0.95654     4.160        1-2     4.0205 /_   28.9   0.96648
   - 2       2.3788 /_ -121.0   0.99042     4.160        2-3     4.0708 /_  -91.6   0.97857
   - 3       2.3139 /_  118.7   0.96341     4.160        3-1     4.0153 /_  148.0   0.96521
24 . 3       2.3103 /_  118.7    0.9619     4.160
N21  1       2.2975 /_   -2.4   0.95657     4.160        1-2     4.0206 /_   28.9    0.9665
   - 2       2.3788 /_ -121.0   0.99042     4.160        2-3     4.0709 /_  -91.6   0.97858
   - 3        2.314 /_  118.7   0.96344     4.160        3-1     4.0154 /_  148.0   0.96524
21 . 1       2.2984 /_   -2.3   0.95695     4.160        1-2     4.0221 /_   28.9   0.96686
   - 2       2.3779 /_ -121.0   0.99005     4.160        2-3     4.0718 /_  -91.6    0.9788
   - 3       2.3168 /_  118.7   0.96461     4.160        3-1     4.0179 /_  148.1   0.96585
22 . 2       2.3746 /_ -121.0   0.98868     4.160
19 . 1       2.2963 /_   -2.3    0.9561     4.160
20 . 1       2.2943 /_   -2.3   0.95525     4.160
9 .. 1       2.3353 /_   -1.4   0.97232     4.160
14 . 1       2.3314 /_   -1.5   0.97068     4.160
10 . 1       2.3306 /_   -1.5   0.97035     4.160
11 . 1       2.3298 /_   -1.5   0.97004     4.160
12 . 2       2.3911 /_ -120.6   0.99557     4.160
3 .. 3       2.3745 /_  119.6   0.98863     4.160
5 .. 3       2.3714 /_  119.5   0.98736     4.160
6 .. 3       2.3699 /_  119.5   0.98671     4.160
4 .. 3       2.3732 /_  119.5    0.9881     4.160
2 .. 2       2.3967 /_ -120.2   0.99789     4.160
160R 1       2.3205 /_   -3.4   0.96615     4.160        1-2     4.0606 /_   28.3   0.97609
   - 2       2.4167 /_ -121.4    1.0062     4.160        2-3     4.1337 /_  -92.4   0.99367
   - 3       2.3364 /_  117.8   0.97277     4.160        3-1     4.0567 /_  147.1   0.97517
25R  1       2.2815 /_   -2.4   0.94993     4.160        1-2     3.9937 /_   28.9   0.96001
   - 2        2.365 /_ -121.0   0.98467     4.160        2-3     4.0447 /_  -91.6   0.97228
   - 3       2.2973 /_  118.7   0.95648     4.160        3-1     3.9881 /_  148.0   0.95867
9R . 1       2.3353 /_   -1.4   0.97232     4.160
150R 1       2.4018 /_    0.0   0.99999     4.160        1-2       4.16 /_   30.0   0.99999
   - 2       2.4018 /_ -120.0   0.99999     4.160        2-3       4.16 /_  -90.0         1
   - 3       2.4018 /_  120.0   0.99999     4.160        3-1       4.16 /_  150.0   0.99999
